Ngspice started...

Circuit: * qucs 2.1.0 c:/users/javie/desktop/university_projects/software_defined_radio/lowpass.sch

Doing analysis at TEMP = 27.000000 and TNOM = 27.000000


No. of Data Rows : 50
binary raw file
Doing analysis at TEMP = 27.000000 and TNOM = 27.000000


Initial Transient Solution
--------------------------

Node                                   Voltage
----                                   -------
in                                           0
out                                          0
v1#branch                                    0


No. of Data Rows : 59
binary raw file
Note: can't find init file.


exit: no such command available in ngspice
Note: No ".plot", ".print", or ".fourier" lines; no simulations run
